@<TRIPOS>MOLECULE
RES
33 32 1 0 1
SMALL
NO_CHARGES
@<TRIPOS>CRYSIN
    8.4524    18.3690     6.7950    90.0000    90.0000    90.0000  1  1
@<TRIPOS>ATOM
       1 C           -0.0000   -11.2000    -0.0000 C             1 RES     
       2 H           -1.1000   -11.2000    -0.0000 H             1 RES     
       3 H            1.1000   -11.2000     0.0000 H             1 RES     
       4 C           -0.0000    -9.8000    -0.0000 C             1 RES     
       5 H           -1.1000    -9.8000    -0.0000 H             1 RES     
       6 H            1.1000    -9.8000    -0.0000 H             1 RES     
       7 C           -0.0000    -8.4000    -0.0000 C             1 RES     
       8 H           -1.1000    -8.4000    -0.0000 H             1 RES     
       9 H            1.1000    -8.4000    -0.0000 H             1 RES     
      10 C           -0.0000    -7.0000    -0.0000 C             1 RES     
      11 H           -1.1000    -7.0000    -0.0000 H             1 RES     
      12 H            1.1000    -7.0000    -0.0000 H             1 RES     
      13 C           -0.0000    -5.6000    -0.0000 C             1 RES     
      14 H           -1.1000    -5.6000     0.0000 H             1 RES     
      15 H            1.1000    -5.6000    -0.0000 H             1 RES     
      16 C           -0.0000    -4.2000     0.0000 C             1 RES     
      17 H           -1.1000    -4.2000     0.0000 H             1 RES     
      18 H            1.1000    -4.2000    -0.0000 H             1 RES     
      19 C           -0.0000    -2.8000     0.0000 C             1 RES     
      20 H           -1.1000    -2.8000     0.0000 H             1 RES     
      21 H            1.1000    -2.8000    -0.0000 H             1 RES     
      22 C           -0.0000    -1.4000    -0.0000 C             1 RES     
      23 H           -1.1000    -1.4000     0.0000 H             1 RES     
      24 H            1.1000    -1.4000    -0.0000 H             1 RES     
      25 C            0.0000     0.0000     0.0000 C             1 RES     
      26 H            1.0700     0.0000     0.0000 H             1 RES     
      27 H           -0.3570     0.7690     0.6530 H             1 RES     
      28 H           -0.3570     0.1810    -0.9930 H             1 RES     
      29 Si          -0.0000   -12.6000    -0.0000 Si            1 RES     
      30 O            1.3073   -12.6000     0.0000 O             1 RES     
      31 H            1.6345   -12.5684    -0.6710 H             1 RES     
      32 O           -1.4502   -12.4491    -0.0000 O             1 RES     
      33 H           -1.8179   -12.5317     0.8020 H             1 RES     
@<TRIPOS>BOND
       1        9        7 1
       2       17       16 1
       3       25       26 1
       4        5        4 1
       5       13       10 1
       6       23       22 1
       7       18       16 1
       8       25       22 1
       9       30       29 1
      10       11       10 1
      11       16       13 1
      12       30       31 1
      13       19       16 1
      14        4        1 1
      15       20       19 1
      16       25       28 1
      17       25       27 1
      18       14       13 1
      19       29        1 1
      20        3        1 1
      21       10        7 1
      22       12       10 1
      23        6        4 1
      24       21       19 1
      25       29       32 1
      26       33       32 1
      27        7        4 1
      28       15       13 1
      29        8        7 1
      30       24       22 1
      31        2        1 1
      32       22       19 1
@<TRIPOS>SUBSTRUCTURE
       1 RES             1 RESIDUE    0 **** ROOT      0
